@<TRIPOS>MOLECULE
UNL
   42    44     1     0     0
SMALL
bcc


@<TRIPOS>ATOM
      1 C1           2.8960    -9.7790     2.5300 ca         1 UNL      -0.111000
      2 C2           3.1890    -8.9440     1.4510 ca         1 UNL      -0.106000
      3 C3           1.9660   -10.8070     2.3840 ca         1 UNL      -0.130000
      4 C4           4.9980    -3.5320    -3.5960 ca         1 UNL      -0.250300
      5 C5           3.3540    -4.9860    -4.5800 ca         1 UNL      -0.258300
      6 C6           1.6200   -10.1670     0.0800 ca         1 UNL      -0.159000
      7 C7           5.1860    -2.9820    -4.8540 ca         1 UNL       0.424200
      8 C8           3.7810    -5.0120     0.0650 ca         1 UNL       0.683900
      9 C9           4.0630    -4.5530    -3.4650 cp         1 UNL      -0.078500
     10 C10          2.5510    -9.1390     0.2260 ca         1 UNL       0.140600
     11 C11          1.3280   -11.0020     1.1590 ca         1 UNL       0.031400
     12 C12          3.6160    -4.3710    -5.7940 ca         1 UNL       0.626200
     13 C13          3.8300    -5.1610    -2.1740 cp         1 UNL       0.751500
     14 C14          3.2500    -6.9460    -0.9430 ca         1 UNL       0.894900
     15 C15          2.1230    -4.9340    -9.2320 c3         1 UNL      -0.094400
     16 C16          3.0550    -4.2760    -8.2230 c3         1 UNL       0.191800
     17 C17          0.6510    -4.7440    -8.8880 c3         1 UNL       0.132400
     18 N18          4.5160    -3.3770    -5.9600 nb         1 UNL      -0.707000
     19 N19          4.0160    -4.3810    -1.0970 nb         1 UNL      -0.746000
     20 N20          3.3970    -6.2890     0.2200 nb         1 UNL      -0.763000
     21 N21          3.4490    -6.4490    -2.1740 nb         1 UNL      -0.773000
     22 N22          2.8460    -8.2960    -0.8620 nh         1 UNL      -0.713300
     23 N23          2.8990    -4.8130    -6.8990 nh         1 UNL      -0.835900
     24 O24         -0.1370    -5.4020    -9.8710 oh         1 UNL      -0.606800
     25 CL25         0.1790   -12.2700     0.9800 cl         1 UNL      -0.089400
     26 H26          3.3930    -9.6260     3.4840 ha         1 UNL       0.143000
     27 H27          3.9160    -8.1460     1.5760 ha         1 UNL       0.158000
     28 H28          1.7470   -11.4500     3.2330 ha         1 UNL       0.151000
     29 H29          5.5710    -3.1670    -2.7490 ha         1 UNL       0.160000
     30 H30          2.6190    -5.7820    -4.5020 ha         1 UNL       0.154000
     31 H31          1.1250   -10.3150    -0.8770 ha         1 UNL       0.149000
     32 H32          5.9050    -2.1840    -5.0100 h4         1 UNL       0.025100
     33 H33          3.9160    -4.4320     0.9690 h5         1 UNL       0.061100
     34 H34          2.3120    -4.5130   -10.2280 hc         1 UNL       0.060700
     35 H35          2.3420    -6.0060    -9.3140 hc         1 UNL       0.060700
     36 H36          4.0980    -4.4400    -8.5120 h1         1 UNL       0.054700
     37 H37          2.8790    -3.1970    -8.1700 h1         1 UNL       0.054700
     38 H38          0.4130    -5.1750    -7.9110 h1         1 UNL       0.028200
     39 H39          0.3850    -3.6820    -8.8840 h1         1 UNL       0.028200
     40 H40          2.7500    -8.7460    -1.7670 hn         1 UNL       0.452800
     41 H41          2.2230    -5.5590    -6.7560 hn         1 UNL       0.403800
     42 H42         -1.0660    -5.2630    -9.6240 ho         1 UNL       0.401000
@<TRIPOS>BOND
     1     1     2 ar  
     2     1     3 ar  
     3     1    26 1   
     4     2    10 ar  
     5     2    27 1   
     6     3    11 ar  
     7     3    28 1   
     8     4     7 ar  
     9     4     9 ar  
    10     4    29 1   
    11     5     9 ar  
    12     5    12 ar  
    13     5    30 1   
    14     6    10 ar  
    15     6    11 ar  
    16     6    31 1   
    17     7    18 ar  
    18     7    32 1   
    19     8    19 ar  
    20     8    20 ar  
    21     8    33 1   
    22     9    13 1   
    23    10    22 1   
    24    11    25 1   
    25    12    18 ar  
    26    12    23 1   
    27    13    19 ar  
    28    13    21 ar  
    29    14    20 ar  
    30    14    21 ar  
    31    14    22 1   
    32    15    16 1   
    33    15    17 1   
    34    15    34 1   
    35    15    35 1   
    36    16    23 1   
    37    16    36 1   
    38    16    37 1   
    39    17    24 1   
    40    17    38 1   
    41    17    39 1   
    42    22    40 1   
    43    23    41 1   
    44    24    42 1   
@<TRIPOS>SUBSTRUCTURE
     1 UNL         1 TEMP              0 ****  ****    0 ROOT
