@<TRIPOS>MOLECULE
*****
   46    49     0     0     0
SMALL
NO_CHARGES

@<TRIPOS>ATOM
      1 O1          5.1910   -3.0280   -9.1880 O.2       1 AXI287      0.0000
      2 C1          4.5270   -4.0630   -9.1840 C.2       1 AXI287      0.0000
      3 N1          4.8570   -5.1510   -9.8960 N.3       1 AXI287      0.0000
      4 C2          6.0190   -5.2410  -10.7730 C.3       1 AXI287      0.0000
      5 C3          3.2520   -4.1520   -8.3800 C.2       1 AXI287      0.0000
      6 C4          2.0830   -4.6040   -9.0130 C.2       1 AXI287      0.0000
      7 C5          0.8630   -4.6210   -8.3390 C.2       1 AXI287      0.0000
      8 C6          0.7920   -4.1970   -7.0170 C.2       1 AXI287      0.0000
      9 C7          3.1810   -3.7520   -7.0260 C.2       1 AXI287      0.0000
     10 C8          1.9460   -3.7710   -6.3650 C.2       1 AXI287      0.0000
     11 S1          4.6240   -3.2090   -6.1200 S.3       1 AXI287      0.0000
     12 C9          4.4140   -3.9120   -4.5110 C.2       1 AXI287      0.0000
     13 C10         4.0100   -5.2410   -4.3730 C.2       1 AXI287      0.0000
     14 C11         3.8220   -5.8160   -3.1190 C.2       1 AXI287      0.0000
     15 C12         4.6710   -3.1100   -3.4000 C.2       1 AXI287      0.0000
     16 C13         4.4640   -3.6880   -2.1450 C.2       1 AXI287      0.0000
     17 N2          4.5850   -3.1820   -0.8750 N.3       1 AXI287      0.0000
     18 N3          4.2830   -4.1000    0.0500 N.2       1 AXI287      0.0000
     19 C14         3.9400   -5.2130   -0.5460 C.2       1 AXI287      0.0000
     20 C15         4.0390   -5.0330   -1.9730 C.2       1 AXI287      0.0000
     21 C16         3.5260   -6.3680    0.2340 C.2       1 AXI287      0.0000
     22 C17         2.9960   -7.5310   -0.1920 C.2       1 AXI287      0.0000
     23 C18         2.5700   -8.6580    0.6650 C.2       1 AXI287      0.0000
     24 N4          2.8060   -8.5930    2.0060 N.2       1 AXI287      0.0000
     25 C19         2.3610   -9.6050    2.7920 C.2       1 AXI287      0.0000
     26 C20         1.6690  -10.7060    2.2890 C.2       1 AXI287      0.0000
     27 C21         1.4350  -10.7740    0.9160 C.2       1 AXI287      0.0000
     28 C22         1.8890   -9.7410    0.0970 C.2       1 AXI287      0.0000
     29 H1          4.3400   -6.0080   -9.7570 H         1 AXI287      0.0000
     30 H2          5.8700   -6.0390  -11.5000 H         1 AXI287      0.0000
     31 H3          6.1810   -4.3150  -11.3240 H         1 AXI287      0.0000
     32 H4          6.9150   -5.4680  -10.1930 H         1 AXI287      0.0000
     33 H5          2.1030   -4.9220  -10.0460 H         1 AXI287      0.0000
     34 H6         -0.0270   -4.9590   -8.8480 H         1 AXI287      0.0000
     35 H7         -0.1540   -4.2070   -6.4950 H         1 AXI287      0.0000
     36 H8          1.8690   -3.4530   -5.3360 H         1 AXI287      0.0000
     37 H9          3.8400   -5.8440   -5.2520 H         1 AXI287      0.0000
     38 H10         3.5130   -6.8470   -3.0530 H         1 AXI287      0.0000
     39 H11         4.9920   -2.0850   -3.5110 H         1 AXI287      0.0000
     40 H12         4.8880   -2.2560   -0.5940 H         1 AXI287      0.0000
     41 H13         3.6740   -6.2350    1.2960 H         1 AXI287      0.0000
     42 H14         2.8420   -7.6770   -1.2480 H         1 AXI287      0.0000
     43 H15         2.5660   -9.5190    3.8490 H         1 AXI287      0.0000
     44 H16         1.3250  -11.4910    2.9480 H         1 AXI287      0.0000
     45 H17         0.8990  -11.6110    0.4950 H         1 AXI287      0.0000
     46 H18         1.6940   -9.7830   -0.9570 H         1 AXI287      0.0000
@<TRIPOS>BOND
     1    1    2 1
     2    2    3 1
     3    3    4 1
     4    2    5 1
     5    5    6 1
     6    6    7 1
     7    7    8 1
     8    5    9 1
     9    9   10 1
    10    8   10 1
    11    9   11 1
    12   11   12 1
    13   12   13 1
    14   13   14 1
    15   12   15 1
    16   15   16 1
    17   16   17 1
    18   17   18 1
    19   18   19 1
    20   19   20 1
    21   14   20 1
    22   16   20 1
    23   19   21 1
    24   21   22 1
    25   22   23 1
    26   23   24 1
    27   24   25 1
    28   25   26 1
    29   26   27 1
    30   27   28 1
    31   23   28 1
    32    3   29 1
    33    4   30 1
    34    4   31 1
    35    4   32 1
    36    6   33 1
    37    7   34 1
    38    8   35 1
    39   10   36 1
    40   13   37 1
    41   14   38 1
    42   15   39 1
    43   17   40 1
    44   21   41 1
    45   22   42 1
    46   25   43 1
    47   26   44 1
    48   27   45 1
    49   28   46 1
