@<TRIPOS>MOLECULE
UNL
   66    71     1     0     0
SMALL
bcc


@<TRIPOS>ATOM
      1 C1           4.3260   -11.2770     4.2780 ca         1 UNL      -0.125000
      2 C2           3.0720   -10.7260     4.5420 ca         1 UNL      -0.135000
      3 C3           4.5620   -11.9240     3.0650 ca         1 UNL      -0.135000
      4 C4           4.4820     0.3220    -7.2750 ca         1 UNL      -0.125000
      5 C5           4.3560     0.4530    -5.8760 ca         1 UNL      -0.131000
      6 C6           2.0540   -10.8210     3.5930 ca         1 UNL      -0.106500
      7 C7           3.5440   -12.0190     2.1160 ca         1 UNL      -0.106500
      8 C8           3.0110    -9.4580    -0.5330 ca         1 UNL      -0.105000
      9 C9           1.5430    -8.2460     0.9540 ca         1 UNL      -0.105000
     10 C10          3.8080    -8.3210    -0.6730 ca         1 UNL      -0.120500
     11 C11          2.3390    -7.1090     0.8140 ca         1 UNL      -0.120500
     12 C12          4.6210    -0.9350    -7.8700 ca         1 UNL      -0.129000
     13 C13          4.3680    -0.6690    -5.0400 ca         1 UNL      -0.122000
     14 C14          2.2900   -11.4680     2.3800 ca         1 UNL      -0.026800
     15 C15          1.8790    -9.4200     0.2810 ca         1 UNL      -0.085800
     16 C16          3.4720    -7.1470     0.0000 ca         1 UNL      -0.068300
     17 C17          4.6300    -2.0240    -7.0270 ca         1 UNL      -0.005400
     18 C18          4.5070    -1.9010    -5.6450 ca         1 UNL      -0.011400
     19 C19          1.2130   -11.5690     1.3750 cc         1 UNL       0.060400
     20 C20          1.0380   -10.6200     0.4290 cd         1 UNL       0.091400
     21 C21         -0.5550   -12.8350     0.6340 cd         1 UNL       0.358300
     22 C22         -0.8490   -11.8290    -0.4540 c          1 UNL       0.555200
     23 C23          4.7090    -4.1380    -6.1420 c          1 UNL       0.774500
     24 C24          5.7290    -4.1970    -3.1980 c3         1 UNL      -0.098900
     25 C25          3.2370    -4.3710    -3.4090 c3         1 UNL      -0.098900
     26 C26          5.5930    -4.6240    -1.7350 c3         1 UNL       0.171800
     27 C27          3.1830    -4.7930    -1.9400 c3         1 UNL       0.171800
     28 C28          4.4610    -3.5010    -3.6920 c3         1 UNL       0.115700
     29 C29         -1.4470   -14.0400     0.7110 c3         1 UNL      -0.123400
     30 C30          4.3310    -5.9240    -0.1490 c3         1 UNL       0.213100
     31 N31          0.4180   -12.6900     1.4780 nc         1 UNL      -0.493300
     32 N32          4.7540    -3.3770    -7.3450 n          1 UNL      -0.441100
     33 N33          0.0100   -10.7560    -0.4720 n          1 UNL      -0.431100
     34 N34          4.5540    -3.1880    -5.0970 n          1 UNL      -0.329000
     35 N35          4.4180    -5.4830    -1.5410 n3         1 UNL      -0.731600
     36 O36         -1.7850   -12.0210    -1.2150 o          1 UNL      -0.623500
     37 O37          4.7890    -5.3550    -6.0480 o          1 UNL      -0.619500
     38 H38          5.1180   -11.2020     5.0160 ha         1 UNL       0.131000
     39 H39          2.8880   -10.2210     5.4860 ha         1 UNL       0.132000
     40 H40          5.5380   -12.3520     2.8580 ha         1 UNL       0.132000
     41 H41          4.4690     1.2130    -7.8970 ha         1 UNL       0.137000
     42 H42          4.2490     1.4440    -5.4420 ha         1 UNL       0.136000
     43 H43          1.0820   -10.3870     3.8130 ha         1 UNL       0.139000
     44 H44          3.7430   -12.5260     1.1750 ha         1 UNL       0.139000
     45 H45          3.2860   -10.3660    -1.0650 ha         1 UNL       0.144000
     46 H46          0.6640    -8.2010     1.5920 ha         1 UNL       0.144000
     47 H47          4.6880    -8.3600    -1.3090 ha         1 UNL       0.147500
     48 H48          2.0700    -6.1980     1.3420 ha         1 UNL       0.147500
     49 H49          4.7180    -1.0380    -8.9440 ha         1 UNL       0.143000
     50 H50          4.2720    -0.5600    -3.9670 ha         1 UNL       0.141000
     51 H51          6.5730    -3.5060    -3.2920 hc         1 UNL       0.068950
     52 H52          5.9620    -5.0650    -3.8210 hc         1 UNL       0.068950
     53 H53          3.2330    -5.2550    -4.0530 hc         1 UNL       0.068950
     54 H54          2.3330    -3.8020    -3.6510 hc         1 UNL       0.068950
     55 H55          6.5090    -5.1320    -1.4070 h1         1 UNL       0.034450
     56 H56          5.4920    -3.7170    -1.1250 h1         1 UNL       0.034450
     57 H57          3.0550    -3.8890    -1.3320 h1         1 UNL       0.034450
     58 H58          2.3050    -5.4280    -1.7640 h1         1 UNL       0.034450
     59 H59          4.3490    -2.5370    -3.1790 h1         1 UNL       0.059700
     60 H60         -1.0340   -14.8340     0.0940 hc         1 UNL       0.063700
     61 H61         -2.4400   -13.7790     0.3550 hc         1 UNL       0.063700
     62 H62         -1.5130   -14.3750     1.7440 hc         1 UNL       0.063700
     63 H63          3.9280    -5.0950     0.4430 h1         1 UNL       0.043200
     64 H64          5.3490    -6.1140     0.2070 h1         1 UNL       0.043200
     65 H65          4.8580    -3.7450    -8.2820 hn         1 UNL       0.342500
     66 H66         -0.1180   -10.0350    -1.1760 hn         1 UNL       0.337500
@<TRIPOS>BOND
     1     1     2 ar  
     2     1     3 ar  
     3     1    38 1   
     4     2     6 ar  
     5     2    39 1   
     6     3     7 ar  
     7     3    40 1   
     8     4     5 ar  
     9     4    12 ar  
    10     4    41 1   
    11     5    13 ar  
    12     5    42 1   
    13     6    14 ar  
    14     6    43 1   
    15     7    14 ar  
    16     7    44 1   
    17     8    10 ar  
    18     8    15 ar  
    19     8    45 1   
    20     9    11 ar  
    21     9    15 ar  
    22     9    46 1   
    23    10    16 ar  
    24    10    47 1   
    25    11    16 ar  
    26    11    48 1   
    27    12    17 ar  
    28    12    49 1   
    29    13    18 ar  
    30    13    50 1   
    31    14    19 1   
    32    15    20 1   
    33    16    30 1   
    34    17    18 ar  
    35    17    32 1   
    36    18    34 1   
    37    19    20 2   
    38    19    31 1   
    39    20    33 1   
    40    21    22 1   
    41    21    29 1   
    42    21    31 2   
    43    22    33 1   
    44    22    36 2   
    45    23    32 1   
    46    23    34 1   
    47    23    37 2   
    48    24    26 1   
    49    24    28 1   
    50    24    51 1   
    51    24    52 1   
    52    25    27 1   
    53    25    28 1   
    54    25    53 1   
    55    25    54 1   
    56    26    35 1   
    57    26    55 1   
    58    26    56 1   
    59    27    35 1   
    60    27    57 1   
    61    27    58 1   
    62    28    34 1   
    63    28    59 1   
    64    29    60 1   
    65    29    61 1   
    66    29    62 1   
    67    30    35 1   
    68    30    63 1   
    69    30    64 1   
    70    32    65 1   
    71    33    66 1   
@<TRIPOS>SUBSTRUCTURE
     1 UNL         1 TEMP              0 ****  ****    0 ROOT
